data/rfi_simulation/der000/ckt7_Mon_rfi_17_der000.csv
fault_bus,fault_type,fault_R_ohm,Va_mag_pu,Va_ang_deg,Vb_mag_pu,Vb_ang_deg,Vc_mag_pu,Vc_ang_deg,Ia_mag_A,Ia_ang_deg,Ib_mag_A,Ib_ang_deg,Ic_mag_A,Ic_ang_deg
318412,SLG,0,0.124947,-118.0596,1.036124,-151.8463,1.034619,88.5886,0.0,-28.0542,0.0,-61.8476,0.0,178.5819
318412,SLG,10,1.026219,-31.5527,1.030775,-151.201,1.023082,88.6616,0.0,58.4521,0.0,-61.2171,0.0,178.6826
318412,SLG,20,1.026225,-31.5297,1.030777,-151.201,1.02308,88.6614,0.0,58.4636,0.0,-61.2138,0.0,178.6591
318412,SLG,30,1.026227,-31.5221,1.030778,-151.201,1.023079,88.6613,0.0,58.4792,0.0,-61.2267,0.0,178.6472
318412,SLG,40,1.026228,-31.5182,1.030778,-151.201,1.023079,88.6613,0.0,58.4883,0.0,-61.1939,0.0,178.671
318412,LL,0,0.117172,-114.0078,0.134183,122.6831,1.036143,88.1375,0.0,-24.0194,0.0,-147.3321,0.0,178.1578
318412,LL,10,1.026222,-31.5523,1.030761,-151.247,1.023078,88.6616,0.0,58.4592,0.0,-61.2266,0.0,178.6708
318412,LL,20,1.026227,-31.5295,1.03077,-151.224,1.023078,88.6614,0.0,58.4523,0.0,-61.2378,0.0,178.6591
318412,LL,30,1.026228,-31.5219,1.030773,-151.2163,1.023078,88.6613,0.0,58.4828,0.0,-61.1987,0.0,178.6592
318412,LL,40,1.026229,-31.5181,1.030775,-151.2125,1.023078,88.6613,0.0,58.4843,0.0,-61.186,0.0,178.6828
318412,3LG,0,0.128356,-113.6958,0.12894,126.6135,0.127961,6.4891,0.0,-23.6804,0.0,-143.3915,0.0,96.4695
318412,3LG,10,1.026217,-31.5524,1.030765,-151.2466,1.023063,88.6155,0.0,58.4579,0.0,-61.2586,0.0,178.6243
318412,3LG,20,1.026224,-31.5295,1.030772,-151.2238,1.023071,88.6383,0.0,58.4596,0.0,-61.248,0.0,178.6475
318412,3LG,30,1.026227,-31.5219,1.030774,-151.2162,1.023073,88.6459,0.0,58.4936,0.0,-61.2222,0.0,178.659
318412,3LG,40,1.026228,-31.5181,1.030776,-151.2124,1.023074,88.6497,0.0,58.4722,0.0,-61.2226,0.0,178.6476
243937,SLG,0,0.011567,102.8699,1.324813,172.8491,1.728462,102.5359,0.0,-167.1108,0.0,-97.1613,0.0,-167.4487
243937,SLG,10,1.019568,-31.6626,1.033104,-151.4598,1.02605,88.9056,0.0,58.3524,0.0,-61.4597,0.0,178.9186
243937,SLG,20,1.022891,-31.5849,1.031945,-151.3309,1.024563,88.784,0.0,58.4267,0.0,-61.3317,0.0,178.7889
243937,SLG,30,1.024002,-31.5589,1.031558,-151.2877,1.024068,88.7432,0.0,58.4565,0.0,-61.2993,0.0,178.7305
243937,SLG,40,1.024559,-31.5459,1.031363,-151.266,1.02382,88.7227,0.0,58.4372,0.0,-61.2779,0.0,178.7073
243937,LL,0,0.022581,-38.913,0.036674,96.9052,1.472649,83.3732,0.0,50.9833,0.0,-173.3139,0.0,173.3753
243937,LL,10,1.02252,-31.4196,1.026489,-151.6132,1.028329,88.6479,0.0,58.5936,0.0,-61.6489,0.0,178.6656
243937,LL,20,1.024364,-31.4627,1.028626,-151.4077,1.025718,88.6546,0.0,58.5257,0.0,-61.43,0.0,178.6274
243937,LL,30,1.024984,-31.4773,1.029342,-151.3389,1.024841,88.6568,0.0,58.5167,0.0,-61.357,0.0,178.6495
243937,LL,40,1.025295,-31.4846,1.0297,-151.3045,1.024402,88.6579,0.0,58.5025,0.0,-61.3462,0.0,178.6617
243937,3LG,0,0.031943,-96.6241,0.032073,143.6861,0.031835,23.5446,0.0,-6.629,0.0,-126.3095,0.0,113.5142
243937,3LG,10,1.024846,-31.6766,1.029393,-151.3701,1.021685,88.4913,0.0,58.3065,0.0,-61.3758,0.0,178.4824
243937,3LG,20,1.025539,-31.5917,1.030087,-151.2856,1.022382,88.5762,0.0,58.4194,0.0,-61.2989,0.0,178.5648
243937,3LG,30,1.02577,-31.5634,1.030318,-151.2574,1.022614,88.6045,0.0,58.4371,0.0,-61.2556,0.0,178.6001
243937,3LG,40,1.025886,-31.5492,1.030433,-151.2433,1.02273,88.6186,0.0,58.4372,0.0,-61.2451,0.0,178.6234
157347,SLG,0,0.400154,-24.0386,1.08506,-170.017,1.339666,95.553,0.0,65.9705,0.0,-80.0099,0.0,-174.4347
157347,SLG,10,1.017679,-31.9955,1.035793,-151.4295,1.024251,89.0208,0.0,58.0046,0.0,-61.4404,0.0,179.0218
157347,SLG,20,1.021954,-31.7532,1.033314,-151.3151,1.023639,88.8424,0.0,58.2507,0.0,-61.3,0.0,178.8464
157347,SLG,30,1.023379,-31.6715,1.032475,-151.2771,1.023446,88.7823,0.0,58.3192,0.0,-61.2696,0.0,178.7645
157347,SLG,40,1.024092,-31.6305,1.032054,-151.258,1.023352,88.7521,0.0,58.3708,0.0,-61.2833,0.0,178.7527
157347,LL,0,0.502206,-33.1661,0.337705,-163.1713,1.246512,83.3697,0.0,56.8308,0.0,-73.1638,0.0,173.3735
157347,LL,10,1.018852,-31.6353,1.027245,-151.9147,1.029227,88.7909,0.0,58.377,0.0,-61.9403,0.0,178.8065
157347,LL,20,1.022501,-31.5724,1.029045,-151.5601,1.02617,88.7285,0.0,58.4315,0.0,-61.5465,0.0,178.7098
157347,LL,30,1.023735,-31.5508,1.02963,-151.4409,1.025143,88.7066,0.0,58.4557,0.0,-61.4206,0.0,178.7085
157347,LL,40,1.024356,-31.5399,1.02992,-151.3811,1.024628,88.6954,0.0,58.4849,0.0,-61.3853,0.0,178.7078
157347,3LG,0,0.441984,-43.5369,0.443797,-163.2347,0.440544,76.6304,0.0,46.4853,0.0,-73.2312,0.0,166.637
157347,3LG,10,1.023836,-31.864,1.028387,-151.5575,1.02068,88.3039,0.0,58.1465,0.0,-61.5476,0.0,178.3167
157347,3LG,20,1.025042,-31.6859,1.029591,-151.3798,1.021887,88.482,0.0,58.3089,0.0,-61.4009,0.0,178.4708
157347,3LG,30,1.02544,-31.6263,1.029989,-151.3203,1.022286,88.5416,0.0,58.3703,0.0,-61.3194,0.0,178.5527
157347,3LG,40,1.025639,-31.5965,1.030187,-151.2905,1.022484,88.5714,0.0,58.4065,0.0,-61.2867,0.0,178.5883
298162,SLG,0,0.015742,131.5097,1.222232,-172.8515,1.39664,101.2504,0.0,-138.5868,0.0,-82.848,0.0,-168.7705
298162,SLG,10,1.009924,-32.9786,1.04336,-151.427,1.020528,89.3896,0.0,57.0486,0.0,-61.4353,0.0,179.3803
298162,SLG,20,1.018101,-32.2481,1.037143,-151.311,1.021688,89.0268,0.0,57.7403,0.0,-61.3431,0.0,179.0193
298162,SLG,30,1.020817,-32.0021,1.035038,-151.2737,1.022125,88.9052,0.0,58.0185,0.0,-61.2596,0.0,178.9028
298162,SLG,40,1.022172,-31.8787,1.03398,-151.2552,1.022353,88.8443,0.0,58.1226,0.0,-61.2586,0.0,178.8563
298162,LL,0,0.0093,45.4609,0.016539,77.9835,1.344096,85.4,0.0,135.511,0.0,167.8423,0.0,175.3985
298162,LL,10,1.00727,-32.2445,1.02694,-152.8871,1.033114,89.1539,0.0,57.7648,0.0,-62.8978,0.0,179.1569
298162,LL,20,1.016647,-31.8819,1.028992,-152.0489,1.028077,88.9162,0.0,58.1128,0.0,-62.0742,0.0,178.9093
298162,LL,30,1.019819,-31.7583,1.029618,-151.7673,1.026406,88.8331,0.0,58.2577,0.0,-61.7871,0.0,178.8373
298162,LL,40,1.021414,-31.6959,1.02992,-151.6261,1.025572,88.7909,0.0,58.2938,0.0,-61.6474,0.0,178.7904
298162,3LG,0,0.005799,-102.1587,0.005817,138.0874,0.005781,17.9649,0.0,-12.1315,0.0,-131.9214,0.0,107.9302
298162,3LG,10,1.019735,-32.4724,1.024319,-152.1672,1.01662,87.6957,0.0,57.5333,0.0,-62.1713,0.0,177.6998
298162,3LG,20,1.023011,-31.9909,1.027578,-151.6855,1.019878,88.1771,0.0,58.0082,0.0,-61.672,0.0,178.1756
298162,3LG,30,1.024091,-31.8298,1.028651,-151.5243,1.020951,88.3381,0.0,58.1629,0.0,-61.5117,0.0,178.3174
298162,3LG,40,1.024628,-31.7491,1.029186,-151.4436,1.021485,88.4188,0.0,58.2757,0.0,-61.4281,0.0,178.4234
165448,SLG,0,0.015618,131.7216,1.22695,-172.4803,1.389115,101.4679,0.0,-138.589,0.0,-82.4653,0.0,-168.5351
165448,SLG,10,1.009077,-33.1061,1.044351,-151.4186,1.019913,89.434,0.0,56.9203,0.0,-61.422,0.0,179.4271
165448,SLG,20,1.017686,-32.3125,1.037647,-151.3061,1.021362,89.0488,0.0,57.7029,0.0,-61.3183,0.0,179.0421
165448,SLG,30,1.020542,-32.0453,1.035376,-151.2702,1.021903,88.9198,0.0,57.9584,0.0,-61.2791,0.0,178.9142
165448,SLG,40,1.021967,-31.9112,1.034234,-151.2526,1.022186,88.8552,0.0,58.0924,0.0,-61.2825,0.0,178.833
165448,LL,0,0.009329,47.0699,0.016085,77.4177,1.342459,85.5844,0.0,137.1462,0.0,167.4712,0.0,175.5809
165448,LL,10,1.005795,-32.3264,1.027054,-153.0049,1.033506,89.2048,0.0,57.6781,0.0,-63.0297,0.0,179.2035
165448,LL,20,1.0159,-31.9241,1.029074,-152.1082,1.028262,88.9429,0.0,58.087,0.0,-62.0999,0.0,178.9442
165448,LL,30,1.019319,-31.7867,1.029678,-151.8069,1.026526,88.8512,0.0,58.2272,0.0,-61.8222,0.0,178.8613
165448,LL,40,1.021038,-31.7173,1.029967,-151.6559,1.025661,88.8045,0.0,58.284,0.0,-61.6414,0.0,178.8022
165448,3LG,0,0.005383,-102.2121,0.0054,138.0276,0.005367,17.9074,0.0,-12.2034,0.0,-131.9645,0.0,107.9272
165448,3LG,10,1.019233,-32.5466,1.023825,-152.2418,1.016128,87.6215,0.0,57.4585,0.0,-62.2595,0.0,177.6165
165448,3LG,20,1.022764,-32.0282,1.027335,-151.723,1.019636,88.1398,0.0,57.9971,0.0,-61.7375,0.0,178.1279
165448,3LG,30,1.023927,-31.8547,1.028491,-151.5494,1.020791,88.3132,0.0,58.1493,0.0,-61.5489,0.0,178.3287
165448,3LG,40,1.024506,-31.7679,1.029066,-151.4624,1.021365,88.4001,0.0,58.2473,0.0,-61.4688,0.0,178.3764
165449,SLG,0,0.013942,131.6924,1.261675,-171.1041,1.361955,103.0012,0.0,-138.5285,0.0,-81.1258,0.0,-166.9972
165449,SLG,10,1.000938,-34.38,1.054787,-151.3474,1.013743,89.9117,0.0,55.6176,0.0,-61.3414,0.0,179.8941
165449,SLG,20,1.013759,-32.96,1.04297,-151.2592,1.018007,89.2846,0.0,57.0498,0.0,-61.289,0.0,179.2852
165449,SLG,30,1.017958,-32.4792,1.038946,-151.2363,1.019606,89.0762,0.0,57.5165,0.0,-61.2532,0.0,179.0873
165449,SLG,40,1.020042,-32.2374,1.036919,-151.2261,1.02044,88.9722,0.0,57.7864,0.0,-61.259,0.0,178.9595
165449,LL,0,0.008718,53.9334,0.012848,73.8593,1.341841,86.5664,0.0,143.8974,0.0,163.545,0.0,176.5479
165449,LL,10,0.991295,-33.1058,1.02892,-154.193,1.038033,89.7266,0.0,56.872,0.0,-64.1982,0.0,179.7012
165449,LL,20,1.008528,-32.3321,1.030365,-152.7063,1.030334,89.221,0.0,57.6753,0.0,-62.7145,0.0,179.2125
165449,LL,30,1.01438,-32.0629,1.030622,-152.2064,1.027859,89.0405,0.0,57.9444,0.0,-62.208,0.0,179.0368
165449,LL,40,1.017325,-31.9261,1.030706,-151.9557,1.026642,88.9479,0.0,58.0552,0.0,-61.9616,0.0,178.9545
165449,3LG,0,0.003188,-103.5538,0.003196,136.6127,0.00318,16.5203,0.0,-13.571,0.0,-133.4028,0.0,106.5049
165449,3LG,10,1.014922,-33.266,1.019629,-152.9684,1.011972,86.9031,0.0,56.7377,0.0,-63.0146,0.0,176.9101
165449,3LG,20,1.020672,-32.3908,1.025305,-152.0892,1.017624,87.7779,0.0,57.6123,0.0,-62.101,0.0,177.7726
165449,3LG,30,1.022546,-32.0971,1.027153,-151.7941,1.019464,88.0714,0.0,57.8932,0.0,-61.8129,0.0,178.0694
165449,3LG,40,1.023476,-31.9498,1.028068,-151.6462,1.020376,88.2185,0.0,58.0379,0.0,-61.6537,0.0,178.2112
287274,SLG,0,0.070224,-58.0021,1.271048,-168.0922,1.296084,103.555,0.0,31.9862,0.0,-78.1092,0.0,-166.4223
287274,SLG,10,0.990932,-35.0982,1.060579,-151.334,1.010669,90.1933,0.0,54.8795,0.0,-61.3505,0.0,-179.8229
287274,SLG,20,1.008812,-33.3388,1.046063,-151.2409,1.01618,89.4264,0.0,56.6761,0.0,-61.247,0.0,179.413
287274,SLG,30,1.014676,-32.736,1.041041,-151.2215,1.018325,89.1706,0.0,57.2843,0.0,-61.2123,0.0,179.18
287274,SLG,40,1.017587,-32.4316,1.038502,-151.2141,1.019455,89.0429,0.0,57.5764,0.0,-61.2178,0.0,179.0288
287274,LL,0,0.107215,-51.7541,0.089467,158.6146,1.315771,87.7004,0.0,38.2363,0.0,-111.415,0.0,177.7061
287274,LL,10,0.983228,-33.7384,1.030202,-155.1577,1.04772,89.7945,0.0,56.287,0.0,-65.1668,0.0,179.7837
287274,LL,20,1.001724,-32.5651,1.028377,-153.0658,1.031685,89.3764,0.0,57.4483,0.0,-63.0825,0.0,179.3873
287274,LL,30,1.00979,-32.2236,1.029379,-152.4484,1.028721,89.1482,0.0,57.7862,0.0,-62.4832,0.0,179.1534
287274,LL,40,1.013863,-32.0487,1.029806,-152.1381,1.027273,89.0303,0.0,57.9625,0.0,-62.1558,0.0,179.0364
287274,3LG,0,0.109825,-68.0712,0.11001,172.0571,0.10957,51.9796,0.0,21.9174,0.0,-97.9703,0.0,141.9788
287274,3LG,10,1.007296,-33.686,1.012099,-153.3942,1.004478,86.4842,0.0,56.3071,0.0,-63.4099,0.0,176.4951
287274,3LG,20,1.016871,-32.6086,1.02156,-152.3099,1.013893,87.561,0.0,57.4142,0.0,-62.3074,0.0,177.5641
287274,3LG,30,1.020017,-32.244,1.024661,-151.943,1.016981,87.9252,0.0,57.7647,0.0,-61.9674,0.0,177.923
287274,3LG,40,1.02158,-32.0607,1.026202,-151.7585,1.018516,88.1082,0.0,57.9204,0.0,-61.7532,0.0,178.1143
283954,SLG,0,0.076245,-58.9749,1.275981,-167.993,1.294007,103.7765,0.0,31.0712,0.0,-78.0127,0.0,-166.2063
283954,SLG,10,0.985873,-35.7915,1.066235,-151.3242,1.007768,90.4726,0.0,54.2042,0.0,-61.3237,0.0,-179.5383
283954,SLG,20,1.006422,-33.701,1.049072,-151.2223,1.014421,89.5645,0.0,56.3113,0.0,-61.2056,0.0,179.5649
283954,SLG,30,1.013118,-32.9805,1.043072,-151.2063,1.017088,89.2619,0.0,57.0065,0.0,-61.2094,0.0,179.2379
283954,SLG,40,1.016433,-32.6161,1.040034,-151.2016,1.018502,89.111,0.0,57.3935,0.0,-61.217,0.0,179.1099
283954,LL,0,0.114105,-53.1313,0.09578,158.7112,1.316194,87.8249,0.0,36.8784,0.0,-111.2698,0.0,177.8434
283954,LL,10,0.974942,-34.133,1.030426,-155.8393,1.050925,90.0628,0.0,55.8669,0.0,-65.8575,0.0,-179.9206
283954,LL,20,0.997516,-32.7846,1.028883,-153.4083,1.033035,89.5273,0.0,57.2191,0.0,-63.409,0.0,179.5265
283954,LL,30,1.006954,-32.375,1.029807,-152.6779,1.029571,89.253,0.0,57.6375,0.0,-62.696,0.0,179.2584
283954,LL,40,1.011724,-32.1641,1.030162,-152.3105,1.027889,89.1105,0.0,57.825,0.0,-62.3312,0.0,179.1181
283954,3LG,0,0.116755,-68.7124,0.116914,171.3726,0.116529,51.3205,0.0,21.2895,0.0,-98.6211,0.0,141.3152
283954,3LG,10,1.004657,-34.0847,1.009581,-153.8012,1.002002,86.0871,0.0,55.9122,0.0,-63.8181,0.0,176.0687
283954,3LG,20,1.015603,-32.8128,1.020362,-152.5181,1.01271,87.3581,0.0,57.2018,0.0,-62.5342,0.0,177.3597
283954,3LG,30,1.019184,-32.3812,1.023877,-152.0828,1.016206,87.7889,0.0,57.6346,0.0,-62.0839,0.0,177.7927
283954,3LG,40,1.02096,-32.164,1.025619,-151.8638,1.01794,88.0057,0.0,57.8262,0.0,-61.8806,0.0,178.0194
283956,SLG,0,0.248422,-65.0782,1.270131,-164.6789,1.220381,103.5163,0.0,24.9252,0.0,-74.6801,0.0,-166.4735
283956,SLG,10,0.986242,-35.7056,1.065609,-151.329,1.008144,90.4433,0.0,54.2919,0.0,-61.3348,0.0,-179.5387
283956,SLG,20,1.006503,-33.6784,1.048903,-151.2244,1.014535,89.5573,0.0,56.3408,0.0,-61.2319,0.0,179.5533
283956,SLG,30,1.013152,-32.9702,1.042995,-151.2074,1.017141,89.2587,0.0,57.0268,0.0,-61.2441,0.0,179.2612
283956,SLG,40,1.016452,-32.6103,1.03999,-151.2022,1.018533,89.1092,0.0,57.4063,0.0,-61.2077,0.0,179.1217
283956,LL,0,0.299979,-58.0369,0.289615,165.7005,1.279405,89.2039,0.0,31.9767,0.0,-104.3385,0.0,179.2073
283956,LL,10,0.976116,-34.0868,1.029862,-155.7572,1.050543,90.0223,0.0,55.9234,0.0,-65.795,0.0,-179.9886
283956,LL,20,0.997818,-32.7711,1.028708,-153.3876,1.032958,89.5158,0.0,57.2135,0.0,-63.3983,0.0,179.5497
283956,LL,30,1.00709,-32.3686,1.029723,-152.6686,1.029539,89.2477,0.0,57.6287,0.0,-62.681,0.0,179.2586
283956,LL,40,1.011802,-32.1605,1.030113,-152.3053,1.027872,89.1073,0.0,57.8653,0.0,-62.2982,0.0,179.1065
283956,3LG,0,0.316242,-66.6581,0.316931,173.4346,0.315673,53.3947,0.0,23.3512,0.0,-96.568,0.0,143.4116
283956,3LG,10,1.004777,-34.048,1.00969,-153.7638,1.002106,86.1237,0.0,55.9579,0.0,-63.7556,0.0,176.1166
283956,3LG,20,1.015629,-32.8033,1.020384,-152.5085,1.012732,87.3675,0.0,57.1934,0.0,-62.4988,0.0,177.3846
283956,3LG,30,1.019194,-32.3769,1.023886,-152.0785,1.016215,87.7931,0.0,57.6313,0.0,-62.0864,0.0,177.7805
283956,3LG,40,1.020966,-32.1616,1.025624,-151.8613,1.017944,88.0081,0.0,57.8405,0.0,-61.8981,0.0,177.9958
189963,SLG,0,0.019013,-24.558,1.302655,-165.5511,1.240246,105.0452,0.0,65.543,0.0,-75.5711,0.0,-164.9596
189963,SLG,10,0.951972,-37.6132,1.08571,-151.6332,1.008452,90.956,0.0,52.4012,0.0,-61.6293,0.0,-179.0537
189963,SLG,20,0.98702,-34.5531,1.055924,-151.207,1.010742,89.893,0.0,55.4588,0.0,-61.2105,0.0,179.9056
189963,SLG,30,1.000091,-33.5642,1.047775,-151.1882,1.01442,89.4818,0.0,56.4167,0.0,-61.2189,0.0,179.5062
189963,SLG,40,1.006631,-33.0598,1.043611,-151.1848,1.016419,89.2762,0.0,56.9299,0.0,-61.1866,0.0,179.2607
189963,LL,0,0.023707,-9.0781,0.025082,-152.232,1.308952,89.217,0.0,80.9054,0.0,-62.2373,0.0,179.2163
189963,LL,10,0.931016,-34.9906,1.001902,-157.4117,1.058715,90.5878,0.0,54.9963,0.0,-67.4449,0.0,-179.4367
189963,LL,20,0.979319,-33.5043,1.021329,-154.5038,1.043146,89.6449,0.0,56.4805,0.0,-64.534,0.0,179.6456
189963,LL,30,0.99122,-32.7336,1.021171,-153.2414,1.031744,89.4847,0.0,57.2702,0.0,-63.2387,0.0,179.4913
189963,LL,40,0.999799,-32.44,1.023762,-152.7371,1.029475,89.2897,0.0,57.5591,0.0,-62.7473,0.0,179.2817
189963,3LG,0,0.026728,-20.0903,0.026732,-140.0934,0.026738,99.9089,0.0,69.9068,0.0,-50.1046,0.0,-170.0804
189963,3LG,10,0.976966,-35.2621,0.982234,-155.0,0.974785,84.9232,0.0,54.7321,0.0,-64.9992,0.0,174.9031
189963,3LG,20,0.998795,-33.3172,1.003718,-153.0323,0.996146,86.86,0.0,56.6889,0.0,-63.0562,0.0,176.8497
189963,3LG,30,1.0079,-32.7247,1.012712,-152.4328,1.005088,87.45,0.0,57.2936,0.0,-62.4392,0.0,177.423
189963,3LG,40,1.012468,-32.4244,1.01722,-152.1289,1.009573,87.7489,0.0,57.5614,0.0,-62.14,0.0,177.7543
181977,SLG,0,0.111543,-47.973,1.286918,-164.3777,1.213843,104.3086,0.0,42.0418,0.0,-74.3974,0.0,-165.7182
181977,SLG,10,0.948342,-37.9876,1.089095,-151.6596,1.007321,91.1418,0.0,52.0161,0.0,-61.683,0.0,-178.8512
181977,SLG,20,0.985292,-34.78,1.057878,-151.2046,1.009755,89.9895,0.0,55.2389,0.0,-61.2011,0.0,-179.9882
181977,SLG,30,0.998956,-33.7252,1.049146,-151.1826,1.013658,89.5469,0.0,56.2761,0.0,-61.1939,0.0,179.5646
181977,SLG,40,1.005789,-33.1842,1.044662,-151.179,1.015807,89.3251,0.0,56.8251,0.0,-61.1821,0.0,179.3307
181977,LL,0,0.139318,-43.4547,0.124567,-179.6455,1.288389,89.3614,0.0,46.5313,0.0,-89.6468,0.0,179.3704
181977,LL,10,0.926726,-35.1523,1.000846,-157.8118,1.061086,90.7061,0.0,54.8408,0.0,-67.8142,0.0,-179.303
181977,LL,20,0.976601,-33.6262,1.021286,-154.7342,1.044274,89.7353,0.0,56.3804,0.0,-64.7204,0.0,179.7487
181977,LL,30,0.989348,-32.8261,1.021299,-153.3982,1.03241,89.5514,0.0,57.1703,0.0,-63.4349,0.0,179.5495
181977,LL,40,0.998353,-32.5135,1.023911,-152.8568,1.029953,89.3426,0.0,57.4721,0.0,-62.8734,0.0,179.3515
181977,3LG,0,0.141416,-52.8428,0.141506,-172.8322,0.141431,67.1762,0.0,37.1614,0.0,-82.8296,0.0,157.1863
181977,3LG,10,0.975321,-35.4879,0.98064,-155.2337,0.973268,84.6965,0.0,54.5143,0.0,-65.2268,0.0,174.6869
181977,3LG,20,0.997943,-33.4476,1.00291,-153.1666,0.995368,86.7301,0.0,56.5519,0.0,-63.2022,0.0,176.7384
181977,3LG,30,1.007321,-32.816,1.012168,-152.5266,1.004562,87.3593,0.0,57.1819,0.0,-62.5218,0.0,177.3629
181977,3LG,40,1.012031,-32.4945,1.016811,-152.2009,1.009176,87.6793,0.0,57.5058,0.0,-62.2137,0.0,177.6825
181924,SLG,0,0.005777,-18.1213,1.310776,-166.3626,1.258939,105.4073,0.0,71.811,0.0,-76.3462,0.0,-164.5961
181924,SLG,10,0.939443,-39.1728,1.098407,-151.6741,1.003316,91.6262,0.0,50.8244,0.0,-61.6916,0.0,-178.3714
181924,SLG,20,0.981155,-35.3816,1.062684,-151.1868,1.007144,90.2218,0.0,54.5958,0.0,-61.2057,0.0,-179.775
181924,SLG,30,0.996269,-34.1289,1.052418,-151.1633,1.011765,89.6992,0.0,55.8555,0.0,-61.1834,0.0,179.7172
181924,SLG,40,1.003801,-33.4876,1.047127,-151.1621,1.014336,89.438,0.0,56.51,0.0,-61.1889,0.0,179.4238
181924,LL,0,0.006437,-15.6084,0.006126,-144.5308,1.318606,89.0274,0.0,74.389,0.0,-55.4179,0.0,179.0138
181924,LL,10,0.913433,-35.8075,1.000003,-158.9422,1.0666,91.0894,0.0,54.1843,0.0,-68.9525,0.0,-178.9151
181924,LL,20,0.969609,-33.985,1.0216,-155.3033,1.046701,89.9674,0.0,56.0109,0.0,-65.3053,0.0,179.9544
181924,LL,30,0.984687,-33.0735,1.021703,-153.7753,1.033873,89.7146,0.0,56.9462,0.0,-63.8045,0.0,179.7462
181924,LL,40,0.994841,-32.7019,1.024284,-153.1393,1.030999,89.4681,0.0,57.3192,0.0,-63.1458,0.0,179.491
181924,3LG,0,0.006544,-20.7534,0.006548,-140.7311,0.006546,99.2707,0.0,69.2289,0.0,-50.7422,0.0,-170.705
181924,3LG,10,0.970354,-36.1763,0.975744,-155.9315,0.968491,84.0086,0.0,53.818,0.0,-65.9611,0.0,174.0277
181924,3LG,20,0.995634,-33.7912,1.000656,-153.5146,0.99316,86.3876,0.0,56.1996,0.0,-63.5289,0.0,176.372
181924,3LG,30,1.005817,-33.0449,1.010705,-152.7583,1.003127,87.1314,0.0,56.9474,0.0,-62.766,0.0,177.1337
181924,3LG,40,1.010917,-32.6661,1.015729,-152.3746,1.008113,87.5085,0.0,57.3359,0.0,-62.4073,0.0,177.5143
181993,SLG,0,0.000463,-104.687,1.313878,-166.6494,1.265606,105.5433,0.0,-24.7751,0.0,-76.6658,0.0,-164.4507
181993,SLG,10,0.934071,-39.8761,1.104122,-151.6974,1.001153,91.9311,0.0,50.1199,0.0,-61.6999,0.0,-178.0813
181993,SLG,20,0.978608,-35.7593,1.065785,-151.1797,1.005539,90.374,0.0,54.2352,0.0,-61.1681,0.0,-179.6324
181993,SLG,30,0.994618,-34.3868,1.054548,-151.1529,1.010564,89.7995,0.0,55.6062,0.0,-61.1686,0.0,179.7875
181993,SLG,40,1.002583,-33.6832,1.048742,-151.1522,1.013387,89.5126,0.0,56.3253,0.0,-61.1591,0.0,179.5292
181993,LL,0,0.000742,-68.1349,0.000957,129.746,1.322422,88.9734,0.0,24.3625,0.0,-144.7029,0.0,178.9715
181993,LL,10,0.90595,-36.1688,0.999237,-159.6263,1.070242,91.3011,0.0,53.8158,0.0,-69.6364,0.0,-178.6963
181993,LL,20,0.965419,-34.2011,1.021822,-155.6625,1.048326,90.1089,0.0,55.7926,0.0,-65.6773,0.0,-179.8976
181993,LL,30,0.981817,-33.2271,1.022017,-154.0178,1.034865,89.8178,0.0,56.7817,0.0,-64.0108,0.0,179.8157
181993,LL,40,0.992659,-32.8208,1.024582,-153.3221,1.031706,89.5486,0.0,57.1502,0.0,-63.3383,0.0,179.5605
181993,3LG,0,0.000969,-88.0616,0.00097,151.9593,0.000969,31.9321,0.0,1.9477,0.0,-118.0333,0.0,121.9342
181993,3LG,10,0.967657,-36.591,0.973051,-156.3497,0.965867,83.5932,0.0,53.3995,0.0,-66.3862,0.0,173.6012
181993,3LG,20,0.994345,-34.0075,0.999383,-153.7328,0.991917,86.1716,0.0,56.0016,0.0,-63.7496,0.0,176.1971
181993,3LG,30,1.004973,-33.1911,1.009876,-152.9057,1.002315,86.9856,0.0,56.8189,0.0,-62.9182,0.0,176.9882
181993,3LG,40,1.01029,-32.7765,1.015115,-152.4859,1.007511,87.3985,0.0,57.2209,0.0,-62.4794,0.0,177.395
181994,SLG,0,0.000434,-103.0528,1.312335,-166.6332,1.265168,105.4798,0.0,-7.125,0.0,-76.6328,0.0,-164.5195
181994,SLG,10,0.927124,-40.5742,1.109226,-151.7291,0.999438,92.2089,0.0,49.4383,0.0,-61.7364,0.0,-177.7919
181994,SLG,20,0.975222,-36.1418,1.068627,-151.1763,1.004126,90.515,0.0,53.8616,0.0,-61.1748,0.0,-179.4653
181994,SLG,30,0.9924,-34.6494,1.05651,-151.1448,1.009483,89.8927,0.0,55.3638,0.0,-61.1443,0.0,179.8936
181994,SLG,40,1.000937,-33.8829,1.050234,-151.1438,1.012524,89.5819,0.0,56.1199,0.0,-61.151,0.0,179.5758
181994,LL,0,0.000699,-68.8031,0.000861,129.4149,1.321721,88.9581,0.0,21.6055,0.0,-138.9348,0.0,178.98
181994,LL,10,0.897456,-36.5511,0.996155,-160.3157,1.073666,91.4771,0.0,53.458,0.0,-70.3447,0.0,-178.5335
181994,LL,20,0.960619,-34.4327,1.020889,-156.0303,1.049869,90.2345,0.0,55.5629,0.0,-66.0576,0.0,-179.75
181994,LL,30,0.978516,-33.3924,1.021572,-154.2674,1.035806,89.911,0.0,56.638,0.0,-64.28,0.0,179.8964
181994,LL,40,0.990145,-32.9489,1.024316,-153.5105,1.032374,89.622,0.0,57.0527,0.0,-63.516,0.0,179.6188
181994,3LG,0,0.000889,-88.7532,0.00089,151.2815,0.00089,31.2477,0.0,1.2791,0.0,-118.7327,0.0,121.2523
181994,3LG,10,0.963178,-37.0385,0.96856,-156.7992,0.961441,83.1457,0.0,52.9797,0.0,-66.8168,0.0,173.1503
181994,3LG,20,0.992136,-34.2442,0.997183,-153.9706,0.989745,85.9355,0.0,55.7555,0.0,-63.9646,0.0,175.9474
181994,3LG,30,1.00351,-33.3518,1.008422,-153.0672,1.000878,86.8254,0.0,56.6578,0.0,-63.0492,0.0,176.8413
181994,3LG,40,1.009197,-32.8981,1.01403,-152.6081,1.006439,87.2774,0.0,57.0784,0.0,-62.6261,0.0,177.2726
181891,SLG,0,0.247089,-32.4649,1.239306,-163.4319,1.19539,102.018,0.0,57.5407,0.0,-73.4212,0.0,-167.969
181891,SLG,10,0.936427,-38.8424,1.097084,-151.7894,1.005851,91.6143,0.0,51.1534,0.0,-61.8031,0.0,-178.3866
181891,SLG,20,0.97995,-35.3225,1.062602,-151.2236,1.007753,90.2361,0.0,54.6639,0.0,-61.225,0.0,-179.7633
181891,SLG,30,0.995601,-34.1146,1.052517,-151.1797,1.01198,89.7115,0.0,55.8904,0.0,-61.1686,0.0,179.7171
181891,SLG,40,1.003361,-33.4864,1.047256,-151.171,1.014421,89.448,0.0,56.5209,0.0,-61.1734,0.0,179.4474
181891,LL,0,0.263257,-33.1771,0.244897,-155.8118,1.250377,88.819,0.0,56.8263,0.0,-65.7997,0.0,178.8361
181891,LL,10,0.915558,-35.4603,0.99421,-158.7954,1.067631,90.917,0.0,54.53,0.0,-68.8167,0.0,-179.084
181891,LL,20,0.969686,-33.8959,1.019849,-155.3,1.047339,89.9305,0.0,56.0951,0.0,-65.2842,0.0,179.9317
181891,LL,30,0.984522,-33.0388,1.020899,-153.7871,1.03425,89.7036,0.0,56.9713,0.0,-63.8054,0.0,179.7117
181891,LL,40,0.994651,-32.6858,1.023823,-153.1526,1.03125,89.4648,0.0,57.2903,0.0,-63.1685,0.0,179.5026
181891,3LG,0,0.257437,-35.6953,0.257873,-155.5861,0.257233,84.3694,0.0,54.2928,0.0,-65.6061,0.0,174.3805
181891,3LG,10,0.969499,-36.0593,0.974678,-155.8089,0.967485,84.1165,0.0,53.9493,0.0,-65.8094,0.0,174.1213
181891,3LG,20,0.995265,-33.7751,1.000202,-153.4971,0.992747,86.3997,0.0,56.218,0.0,-63.5076,0.0,176.4064
181891,3LG,30,1.005598,-33.0439,1.010436,-152.7567,1.002884,87.1299,0.0,56.9485,0.0,-62.7736,0.0,177.1328
181891,3LG,40,1.010765,-32.6691,1.015543,-152.3772,1.007946,87.5038,0.0,57.3301,0.0,-62.39,0.0,177.5027
255335,SLG,0,0.000457,-90.9472,1.309387,-165.9824,1.250197,105.3738,0.0,-10.3048,0.0,-75.9958,0.0,-164.6273
255335,SLG,10,0.908317,-41.6982,1.116878,-151.8163,0.997617,92.6464,0.0,48.2971,0.0,-61.8361,0.0,-177.3442
255335,SLG,20,0.970148,-37.0315,1.079965,-151.4457,1.00825,90.5691,0.0,52.9851,0.0,-61.4509,0.0,-179.4085
255335,SLG,30,0.985867,-35.0965,1.059687,-151.1444,1.007937,90.0504,0.0,54.9128,0.0,-61.1531,0.0,-179.9408
255335,SLG,40,0.996031,-34.2254,1.052675,-151.1394,1.011259,89.7002,0.0,55.78,0.0,-61.1673,0.0,179.7052
255335,LL,0,0.000654,-71.5819,0.000685,136.8431,1.315524,89.1639,0.0,18.7999,0.0,-131.5891,0.0,179.1747
255335,LL,10,0.877415,-37.1719,0.982386,-161.4577,1.079362,91.7084,0.0,52.8562,0.0,-71.4688,0.0,-178.2867
255335,LL,20,0.949047,-34.8219,1.014794,-156.6658,1.052624,90.4207,0.0,55.1635,0.0,-66.6841,0.0,-179.5921
255335,LL,30,0.970484,-33.674,1.0178,-154.7047,1.03753,90.0541,0.0,56.3268,0.0,-64.712,0.0,-179.931
255335,LL,40,0.983996,-33.1688,1.021598,-153.8431,1.033611,89.7363,0.0,56.8178,0.0,-63.8547,0.0,179.7577
255335,3LG,0,0.000749,-87.0741,0.00075,152.9751,0.000749,32.9401,0.0,2.9179,0.0,-117.0389,0.0,122.9303
255335,3LG,10,0.948292,-37.8049,0.953596,-157.5678,0.946638,82.3792,0.0,52.1738,0.0,-67.5692,0.0,172.3795
255335,3LG,20,0.984471,-34.6635,0.989502,-154.3915,0.982143,85.517,0.0,55.3369,0.0,-64.3928,0.0,175.4895
255335,3LG,30,0.998352,-33.6397,1.003261,-153.3562,0.995768,86.5383,0.0,56.3406,0.0,-63.3701,0.0,176.5368
255335,3LG,40,1.005313,-33.1172,1.010146,-152.828,1.002592,87.059,0.0,56.8798,0.0,-62.8435,0.0,177.0598
182030,SLG,0,0.00044,-90.1226,1.306097,-165.6425,1.242371,105.2307,3170.6487,-90.1226,0.0,-75.5369,0.0,-164.9001
182030,SLG,10,0.901806,-41.9154,1.117773,-151.8564,0.997943,92.7118,649.2607,-41.9154,0.0,-61.8528,0.0,-177.322
182030,SLG,20,0.966596,-37.1651,1.080625,-151.4627,1.008226,90.6107,347.9533,-37.1651,0.0,-61.4657,0.0,-179.4083
182030,SLG,30,0.983454,-35.1917,1.060176,-151.1544,1.007864,90.0798,236.0144,-35.1917,0.0,-61.157,0.0,-179.9408
182030,SLG,40,0.994202,-34.2991,1.05306,-151.1462,1.011181,89.7227,178.9454,-34.2991,0.0,-61.1479,0.0,179.7169
182030,LL,0,0.000621,-70.8014,0.000653,138.1034,1.311568,89.2458,4473.8662,-70.8014,4701.5371,138.1034,0.0,179.2434
182030,LL,10,0.871459,-37.3129,0.976156,-161.7049,1.08044,91.7157,627.412,-37.3129,702.7892,-161.7049,0.0,-178.31
182030,LL,20,0.945543,-34.9102,1.011687,-156.8129,1.053247,90.4385,340.3745,-34.9102,364.1851,-156.8129,0.0,-179.5921
182030,LL,30,0.968029,-33.7381,1.015769,-154.8083,1.037948,90.0703,232.3126,-33.7381,243.7697,-154.8083,0.0,-179.931
182030,LL,40,0.982106,-33.2191,1.020091,-153.9227,1.033923,89.7502,176.7682,-33.2191,183.6051,-153.9227,0.0,179.7346
182030,3LG,0,0.000712,-86.0234,0.000714,154.0268,0.000713,33.9927,5128.316,-86.0234,5136.9426,154.0268,5130.4138,33.9927
182030,3LG,10,0.942538,-37.9954,0.9478,-157.7593,0.940904,82.1877,678.5854,-37.9954,682.3743,-157.7593,677.4092,82.1877
182030,3LG,20,0.981435,-34.7721,0.98645,-154.5008,0.979125,85.4081,353.2947,-34.7721,355.1002,-154.5008,352.4632,85.4081
182030,3LG,30,0.996292,-33.7152,1.001192,-153.4322,0.993721,86.4626,239.0954,-33.7152,240.2714,-153.4322,238.4785,86.4626
182030,3LG,40,1.003755,-33.1751,1.008582,-152.8863,1.001044,87.001,180.6648,-33.1751,181.5337,-152.8863,180.1769,87.001
182153,SLG,0,0.267074,-48.2219,1.257099,-162.1056,1.165167,102.7676,0.0,41.8181,0.0,-72.1239,0.0,-167.2314
182153,SLG,10,0.912045,-40.7914,1.112029,-151.8865,1.000913,92.4285,0.0,49.2181,0.0,-61.8879,0.0,-177.5684
182153,SLG,20,0.966801,-36.5042,1.071748,-151.2188,1.003307,90.6936,0.0,53.5044,0.0,-61.2261,0.0,-179.2984
182153,SLG,30,0.986716,-34.9534,1.058994,-151.1577,1.008462,90.0229,0.0,55.0433,0.0,-61.1529,0.0,-179.9764
182153,SLG,40,0.996672,-34.1355,1.05226,-151.1461,1.011556,89.6831,0.0,55.8902,0.0,-61.1668,0.0,179.6698
182153,LL,0,0.31953,-43.826,0.293926,-177.2183,1.249999,89.7143,0.0,46.1531,0.0,-87.2369,0.0,179.7328
182153,LL,10,0.887618,-36.4879,0.980385,-160.7351,1.077535,91.4166,0.0,53.5161,0.0,-70.732,0.0,-178.5831
182153,LL,20,0.952391,-34.5846,1.014286,-156.4443,1.052349,90.3243,0.0,55.4128,0.0,-66.4615,0.0,-179.6826
182153,LL,30,0.972246,-33.55,1.017742,-154.5899,1.037421,90.0077,0.0,56.4538,0.0,-64.6141,0.0,-179.9885
182153,LL,40,0.985154,-33.0905,1.021687,-153.7687,1.033534,89.7087,0.0,56.9018,0.0,-63.7789,0.0,179.6884
182153,3LG,0,0.325232,-51.6676,0.326224,-171.5201,0.32502,68.4255,0.0,38.3363,0.0,-81.5049,0.0,158.4388
182153,3LG,10,0.952226,-37.307,0.957458,-157.0615,0.950413,82.8781,0.0,52.7118,0.0,-67.0878,0.0,172.8906
182153,3LG,20,0.985949,-34.4994,0.990962,-154.2244,0.983564,85.6821,0.0,55.4957,0.0,-64.2386,0.0,175.678
182153,3LG,30,0.999248,-33.5514,1.004152,-153.266,0.996631,86.6277,0.0,56.4618,0.0,-63.2649,0.0,176.6346
182153,3LG,40,1.005954,-33.0593,1.010787,-152.7687,1.00321,87.1179,0.0,56.9308,0.0,-62.7528,0.0,177.0978
182158,SLG,0,0.328233,-45.4142,1.239798,-161.2817,1.149132,101.8238,0.0,44.5977,0.0,-71.2991,0.0,-168.1953
182158,SLG,10,0.912018,-40.5333,1.110593,-151.9255,1.002213,92.373,0.0,49.4575,0.0,-61.9359,0.0,-177.5955
182158,SLG,20,0.966633,-36.4313,1.071361,-151.2352,1.003754,90.6825,0.0,53.5711,0.0,-61.2547,0.0,-179.3346
182158,SLG,30,0.986611,-34.9195,1.058817,-151.1663,1.008682,90.0185,0.0,55.0846,0.0,-61.1819,0.0,-179.9764
182158,SLG,40,0.996603,-34.1158,1.052158,-151.1514,1.011685,89.6808,0.0,55.8825,0.0,-61.1422,0.0,179.6935
182158,LL,0,0.382439,-41.9026,0.353777,-173.0996,1.232385,89.7043,0.0,48.0829,0.0,-83.1072,0.0,179.6999
182158,LL,10,0.8901,-36.2924,0.97839,-160.5509,1.077229,91.3141,0.0,53.7065,0.0,-70.56,0.0,-178.6715
182158,LL,20,0.953047,-34.5181,1.013506,-156.3983,1.052406,90.2903,0.0,55.4755,0.0,-66.433,0.0,-179.7053
182158,LL,30,0.972525,-33.5172,1.017349,-154.5701,1.03748,89.9916,0.0,56.5215,0.0,-64.5867,0.0,179.977
182158,LL,40,0.985309,-33.071,1.02145,-153.7576,1.033576,89.6993,0.0,56.9377,0.0,-63.7591,0.0,179.6883
182158,3LG,0,0.38697,-48.6446,0.388309,-168.4716,0.386623,71.4677,0.0,41.3575,0.0,-78.4777,0.0,161.4772
182158,3LG,10,0.952505,-37.1896,0.957686,-156.9424,0.950644,82.9934,0.0,52.8358,0.0,-66.935,0.0,172.9902
182158,3LG,20,0.98598,-34.4663,0.990975,-154.1911,0.983584,85.7144,0.0,55.5299,0.0,-64.1912,0.0,175.7152
182158,3LG,30,0.999253,-33.536,1.004149,-153.2505,0.996631,86.6427,0.0,56.4631,0.0,-63.2663,0.0,176.6349
182158,3LG,40,1.005953,-33.0503,1.010782,-152.7597,1.003207,87.1266,0.0,56.9698,0.0,-62.747,0.0,177.1091
182162,SLG,0,0.379067,-43.4089,1.224944,-160.6093,1.136845,100.9907,0.0,46.5983,0.0,-70.6036,0.0,-169.0028
182162,SLG,10,0.911967,-40.2916,1.109267,-151.9629,1.003448,92.3222,0.0,49.7037,0.0,-61.975,0.0,-177.6697
182162,SLG,20,0.97116,-36.6072,1.077776,-151.506,1.01025,90.4896,0.0,53.3854,0.0,-61.4893,0.0,-179.516
182162,SLG,30,0.986498,-34.8875,1.058655,-151.1747,1.008894,90.0148,0.0,55.1073,0.0,-61.1729,0.0,-179.9645
182162,SLG,40,0.996529,-34.0974,1.052067,-151.1565,1.011811,89.679,0.0,55.9034,0.0,-61.1647,0.0,179.6699
182162,LL,0,0.432964,-40.5272,0.402804,-170.0844,1.217515,89.6727,0.0,49.4866,0.0,-80.0697,0.0,179.6865
182162,LL,10,0.892429,-36.1133,0.976485,-160.3771,1.076953,91.2177,0.0,53.8818,0.0,-70.3724,0.0,-178.7705
182162,LL,20,0.953672,-34.4553,1.01274,-156.3551,1.052474,90.2578,0.0,55.5395,0.0,-66.3416,0.0,-179.7166
182162,LL,30,0.97279,-33.486,1.016959,-154.5519,1.037546,89.9762,0.0,56.5322,0.0,-64.551,0.0,179.977
182162,LL,40,0.985454,-33.0525,1.021216,-153.7476,1.033624,89.6904,0.0,56.9442,0.0,-63.7216,0.0,179.7115
182162,3LG,0,0.436308,-46.4244,0.437966,-166.2291,0.435819,73.7039,0.0,43.5876,0.0,-76.2437,0.0,163.7124
182162,3LG,10,0.952739,-37.0817,0.957871,-156.8329,0.950834,83.0994,0.0,52.9248,0.0,-66.844,0.0,173.0967
182162,3LG,20,0.986001,-34.4358,0.990978,-154.1603,0.983593,85.7441,0.0,55.5569,0.0,-64.1806,0.0,175.7399
182162,3LG,30,0.999255,-33.5218,1.004141,-153.2362,0.996627,86.6565,0.0,56.4815,0.0,-63.239,0.0,176.6711
182162,3LG,40,1.005951,-33.0421,1.010775,-152.7515,1.003202,87.1345,0.0,56.975,0.0,-62.7641,0.0,177.134
